Circuit: * E:\1. Undergraduate Studies\4. Programming\7. ECE243\ECE243-Final-Project\Circuitry\3V3_to_5V_Converter_NMOS.asc

.OP point found by inspection.

Date: Thu Mar 28 18:03:49 2019
Total elapsed time: 0.391 seconds.

tnom = 27
temp = 27
method = modified trap
totiter = 28346
traniter = 28346
tranpoints = 8558
accept = 7157
rejected = 1401
matrix size = 14
fillins = 0
solver = Normal
Matrix Compiler1: 724 bytes object code size  0.2/0.1/[0.1]
Matrix Compiler2: 1.04 KB object code size  0.1/0.1/[0.1]

